output/1_TAP2_1/Cargas_BT_SA12_1_TAP2_1.dss
New "Load.BT_15168_0_M1" bus1="UC15168.1.4" phases=1 conn=delta model=2 kv=0.22 kw = 0.5050324950251787 pf=0.92 status=variable vmaxpu=1.5 vminpu=0.92 daily="RES_2_SA" 
New "Load.BT_15168_0_M2" bus1="UC15168.1.4" phases=1 conn=delta model=3 kv=0.22 kw = 0.5050324950251787 pf=0.92 status=variable vmaxpu=1.5 vminpu=0.92 daily="RES_2_SA"
 
New "Load.BT_15169_1_M1" bus1="UC15169.1.2.3.4" phases=3 conn=delta model=2 kv=0.38 kw = 0.3687538852564796 pf=0.92 status=variable vmaxpu=1.5 vminpu=0.92 daily="RES_2_SA" 
New "Load.BT_15169_1_M2" bus1="UC15169.1.2.3.4" phases=3 conn=delta model=3 kv=0.38 kw = 0.3687538852564796 pf=0.92 status=variable vmaxpu=1.5 vminpu=0.92 daily="RES_2_SA"
 
New "Load.BT_15174_4_M1" bus1="UC15174.1.4" phases=1 conn=delta model=2 kv=0.22 kw = 0.5234187708396332 pf=0.92 status=variable vmaxpu=1.5 vminpu=0.92 daily="RES_10_SA" 
New "Load.BT_15174_4_M2" bus1="UC15174.1.4" phases=1 conn=delta model=3 kv=0.22 kw = 0.5234187708396332 pf=0.92 status=variable vmaxpu=1.5 vminpu=0.92 daily="RES_10_SA"
 
New "Load.BT_13788_5_M1" bus1="UC13788.3.4" phases=1 conn=delta model=2 kv=0.22 kw = 0.16353433172243878 pf=0.92 status=variable vmaxpu=1.5 vminpu=0.92 daily="RES_2_SA" 
New "Load.BT_13788_5_M2" bus1="UC13788.3.4" phases=1 conn=delta model=3 kv=0.22 kw = 0.16353433172243878 pf=0.92 status=variable vmaxpu=1.5 vminpu=0.92 daily="RES_2_SA"
 
New "Load.BT_15175_6_M1" bus1="UC15175.1.2.3.4" phases=3 conn=delta model=2 kv=0.38 kw = 0.581989827600444 pf=0.92 status=variable vmaxpu=1.5 vminpu=0.92 daily="RES_2_SA" 
New "Load.BT_15175_6_M2" bus1="UC15175.1.2.3.4" phases=3 conn=delta model=3 kv=0.38 kw = 0.581989827600444 pf=0.92 status=variable vmaxpu=1.5 vminpu=0.92 daily="RES_2_SA"
 
New "Load.BT_10794_8_M1" bus1="ET1_159.2.3.4" phases=2 conn=delta model=2 kv=0.38 kw = 0.3761067958948084 pf=0.92 status=variable vmaxpu=1.5 vminpu=0.92 daily="RES_3_SA" 
New "Load.BT_10794_8_M2" bus1="ET1_159.2.3.4" phases=2 conn=delta model=3 kv=0.38 kw = 0.3761067958948084 pf=0.92 status=variable vmaxpu=1.5 vminpu=0.92 daily="RES_3_SA"
 
New "Load.BT_15178_9_M1" bus1="UC15178.3.4" phases=1 conn=delta model=2 kv=0.22 kw = 0.503480587998308 pf=0.92 status=variable vmaxpu=1.5 vminpu=0.92 daily="RES_1_SA" 
New "Load.BT_15178_9_M2" bus1="UC15178.3.4" phases=1 conn=delta model=3 kv=0.22 kw = 0.503480587998308 pf=0.92 status=variable vmaxpu=1.5 vminpu=0.92 daily="RES_1_SA"
 
New "Load.BT_15180_11_M1" bus1="UC15180.1.4" phases=1 conn=delta model=2 kv=0.22 kw = 0.26454083072747453 pf=0.92 status=variable vmaxpu=1.5 vminpu=0.92 daily="RES_2_SA" 
New "Load.BT_15180_11_M2" bus1="UC15180.1.4" phases=1 conn=delta model=3 kv=0.22 kw = 0.26454083072747453 pf=0.92 status=variable vmaxpu=1.5 vminpu=0.92 daily="RES_2_SA"
 
New "Load.BT_15581_15_M1" bus1="UC15581.1.2.3.4" phases=3 conn=delta model=2 kv=0.38 kw = 0.3052460952189749 pf=0.92 status=variable vmaxpu=1.5 vminpu=0.92 daily="RES_3_SA" 
New "Load.BT_15581_15_M2" bus1="UC15581.1.2.3.4" phases=3 conn=delta model=3 kv=0.38 kw = 0.3052460952189749 pf=0.92 status=variable vmaxpu=1.5 vminpu=0.92 daily="RES_3_SA"
 
New "Load.BT_15838_16_M1" bus1="UC15838.3.4" phases=1 conn=delta model=2 kv=0.22 kw = 0.046905812600607937 pf=0.92 status=variable vmaxpu=1.5 vminpu=0.92 daily="RES_7_SA" 
New "Load.BT_15838_16_M2" bus1="UC15838.3.4" phases=1 conn=delta model=3 kv=0.22 kw = 0.046905812600607937 pf=0.92 status=variable vmaxpu=1.5 vminpu=0.92 daily="RES_7_SA"
 
New "Load.BT_14653_19_M1" bus1="UC14653.1.2.3.4" phases=3 conn=delta model=2 kv=0.38 kw = 0.17442634012512856 pf=0.92 status=variable vmaxpu=1.5 vminpu=0.92 daily="RES_3_SA" 
New "Load.BT_14653_19_M2" bus1="UC14653.1.2.3.4" phases=3 conn=delta model=3 kv=0.38 kw = 0.17442634012512856 pf=0.92 status=variable vmaxpu=1.5 vminpu=0.92 daily="RES_3_SA"
 
New "Load.BT_10919_21_M1" bus1="UC10919.3.4" phases=1 conn=delta model=2 kv=0.22 kw = 0.2689072743595732 pf=0.92 status=variable vmaxpu=1.5 vminpu=0.92 daily="RES_3_SA" 
New "Load.BT_10919_21_M2" bus1="UC10919.3.4" phases=1 conn=delta model=3 kv=0.22 kw = 0.2689072743595732 pf=0.92 status=variable vmaxpu=1.5 vminpu=0.92 daily="RES_3_SA"
 
New "Load.BT_16152_22_M1" bus1="UC16152.1.4" phases=1 conn=delta model=2 kv=0.22 kw = 0.0 pf=0.92 status=variable vmaxpu=1.5 vminpu=0.92 daily="RES_7_SA" 
New "Load.BT_16152_22_M2" bus1="UC16152.1.4" phases=1 conn=delta model=3 kv=0.22 kw = 0.0 pf=0.92 status=variable vmaxpu=1.5 vminpu=0.92 daily="RES_7_SA"
 
New "Load.BT_2530_24_M1" bus1="UC2530.1.4" phases=1 conn=delta model=2 kv=0.22 kw = 0.1326366961368165 pf=0.92 status=variable vmaxpu=1.5 vminpu=0.92 daily="RES_3_SA" 
New "Load.BT_2530_24_M2" bus1="UC2530.1.4" phases=1 conn=delta model=3 kv=0.22 kw = 0.1326366961368165 pf=0.92 status=variable vmaxpu=1.5 vminpu=0.92 daily="RES_3_SA"
 
New "Load.BT_16140_25_M1" bus1="UC16140.1.2.3.4" phases=3 conn=delta model=2 kv=0.38 kw = 4.635016600616696 pf=0.92 status=variable vmaxpu=1.5 vminpu=0.92 daily="RES_3_SA" 
New "Load.BT_16140_25_M2" bus1="UC16140.1.2.3.4" phases=3 conn=delta model=3 kv=0.38 kw = 4.635016600616696 pf=0.92 status=variable vmaxpu=1.5 vminpu=0.92 daily="RES_3_SA"
 
New "Load.BT_16156_26_M1" bus1="UC16156.3.4" phases=1 conn=delta model=2 kv=0.22 kw = 0.024569711362223207 pf=0.92 status=variable vmaxpu=1.5 vminpu=0.92 daily="RES_7_SA" 
New "Load.BT_16156_26_M2" bus1="UC16156.3.4" phases=1 conn=delta model=3 kv=0.22 kw = 0.024569711362223207 pf=0.92 status=variable vmaxpu=1.5 vminpu=0.92 daily="RES_7_SA"
 
New "Load.BT_16132_28_M1" bus1="UC16132.3.4" phases=1 conn=delta model=2 kv=0.22 kw = 0.021453003590262358 pf=0.92 status=variable vmaxpu=1.5 vminpu=0.92 daily="COM_5_SA" 
New "Load.BT_16132_28_M2" bus1="UC16132.3.4" phases=1 conn=delta model=3 kv=0.22 kw = 0.021453003590262358 pf=0.92 status=variable vmaxpu=1.5 vminpu=0.92 daily="COM_5_SA"
 
New "Load.BT_8216_30_M1" bus1="UC8216.3.4" phases=1 conn=delta model=2 kv=0.22 kw = 0.672268185898933 pf=0.92 status=variable vmaxpu=1.5 vminpu=0.92 daily="RES_3_SA" 
New "Load.BT_8216_30_M2" bus1="UC8216.3.4" phases=1 conn=delta model=3 kv=0.22 kw = 0.672268185898933 pf=0.92 status=variable vmaxpu=1.5 vminpu=0.92 daily="RES_3_SA"
 
New "Load.BT_16139_33_M1" bus1="UC16139.2.4" phases=1 conn=delta model=2 kv=0.22 kw = 0.3252324466916459 pf=0.92 status=variable vmaxpu=1.5 vminpu=0.92 daily="RES_3_SA" 
New "Load.BT_16139_33_M2" bus1="UC16139.2.4" phases=1 conn=delta model=3 kv=0.22 kw = 0.3252324466916459 pf=0.92 status=variable vmaxpu=1.5 vminpu=0.92 daily="RES_3_SA"
 
New "Load.BT_16135_34_M1" bus1="UC16135.3.4" phases=1 conn=delta model=2 kv=0.22 kw = 0.20713127889859012 pf=0.92 status=variable vmaxpu=1.5 vminpu=0.92 daily="RES_3_SA" 
New "Load.BT_16135_34_M2" bus1="UC16135.3.4" phases=1 conn=delta model=3 kv=0.22 kw = 0.20713127889859012 pf=0.92 status=variable vmaxpu=1.5 vminpu=0.92 daily="RES_3_SA"
 
New "Load.BT_16138_35_M1" bus1="UC16138.3.4" phases=1 conn=delta model=2 kv=0.22 kw = 0.009534668262338826 pf=0.92 status=variable vmaxpu=1.5 vminpu=0.92 daily="COM_5_SA" 
New "Load.BT_16138_35_M2" bus1="UC16138.3.4" phases=1 conn=delta model=3 kv=0.22 kw = 0.009534668262338826 pf=0.92 status=variable vmaxpu=1.5 vminpu=0.92 daily="COM_5_SA"
 
New "Load.BT_8555_36_M1" bus1="UC8555.3.4" phases=1 conn=delta model=2 kv=0.22 kw = 0.39064232423856915 pf=0.92 status=variable vmaxpu=1.5 vminpu=0.92 daily="RES_3_SA" 
New "Load.BT_8555_36_M2" bus1="UC8555.3.4" phases=1 conn=delta model=3 kv=0.22 kw = 0.39064232423856915 pf=0.92 status=variable vmaxpu=1.5 vminpu=0.92 daily="RES_3_SA"
 
New "Load.BT_15362_38_M1" bus1="UC15362.2.3.4" phases=2 conn=delta model=2 kv=0.38 kw = 0.0 pf=0.92 status=variable vmaxpu=1.5 vminpu=0.92 daily="RES_7_SA" 
New "Load.BT_15362_38_M2" bus1="UC15362.2.3.4" phases=2 conn=delta model=3 kv=0.38 kw = 0.0 pf=0.92 status=variable vmaxpu=1.5 vminpu=0.92 daily="RES_7_SA"
 
New "Load.BT_5102_39_M1" bus1="UC5102.1.4" phases=1 conn=delta model=2 kv=0.22 kw = 0.2798089206173937 pf=0.92 status=variable vmaxpu=1.5 vminpu=0.92 daily="RES_3_SA" 
New "Load.BT_5102_39_M2" bus1="UC5102.1.4" phases=1 conn=delta model=3 kv=0.22 kw = 0.2798089206173937 pf=0.92 status=variable vmaxpu=1.5 vminpu=0.92 daily="RES_3_SA"
 
New "Load.BT_7753_40_M1" bus1="UC7753.1.4" phases=1 conn=delta model=2 kv=0.22 kw = 0.03337133891818589 pf=0.92 status=variable vmaxpu=1.5 vminpu=0.92 daily="COM_5_SA" 
New "Load.BT_7753_40_M2" bus1="UC7753.1.4" phases=1 conn=delta model=3 kv=0.22 kw = 0.03337133891818589 pf=0.92 status=variable vmaxpu=1.5 vminpu=0.92 daily="COM_5_SA"
 
New "Load.BT_12439_42_M1" bus1="UC12439.3.4" phases=1 conn=delta model=2 kv=0.22 kw = 0.1326366961368165 pf=0.92 status=variable vmaxpu=1.5 vminpu=0.92 daily="RES_3_SA" 
New "Load.BT_12439_42_M2" bus1="UC12439.3.4" phases=1 conn=delta model=3 kv=0.22 kw = 0.1326366961368165 pf=0.92 status=variable vmaxpu=1.5 vminpu=0.92 daily="RES_3_SA"
 
New "Load.BT_9732_43_M1" bus1="UC9732.1.4" phases=1 conn=delta model=2 kv=0.22 kw = 0.05290816614549491 pf=0.92 status=variable vmaxpu=1.5 vminpu=0.92 daily="RES_2_SA" 
New "Load.BT_9732_43_M2" bus1="UC9732.1.4" phases=1 conn=delta model=3 kv=0.22 kw = 0.05290816614549491 pf=0.92 status=variable vmaxpu=1.5 vminpu=0.92 daily="RES_2_SA"
 
New "Load.BT_1855_44_M1" bus1="UC1855.1.4" phases=1 conn=delta model=2 kv=0.22 kw = 0.29339983044319906 pf=0.92 status=variable vmaxpu=1.5 vminpu=0.92 daily="RES_2_SA" 
New "Load.BT_1855_44_M2" bus1="UC1855.1.4" phases=1 conn=delta model=3 kv=0.22 kw = 0.29339983044319906 pf=0.92 status=variable vmaxpu=1.5 vminpu=0.92 daily="RES_2_SA"
 
New "Load.BT_1136_45_M1" bus1="UC1136.2.4" phases=1 conn=delta model=2 kv=0.22 kw = 0.2479307237460705 pf=0.92 status=variable vmaxpu=1.5 vminpu=0.92 daily="RES_7_SA" 
New "Load.BT_1136_45_M2" bus1="UC1136.2.4" phases=1 conn=delta model=3 kv=0.22 kw = 0.2479307237460705 pf=0.92 status=variable vmaxpu=1.5 vminpu=0.92 daily="RES_7_SA"
 
New "Load.BT_9732_46_M1" bus1="UC9732.2.4" phases=1 conn=delta model=2 kv=0.22 kw = 0.07181168302412724 pf=0.92 status=variable vmaxpu=1.5 vminpu=0.92 daily="RES_9_SA" 
New "Load.BT_9732_46_M2" bus1="UC9732.2.4" phases=1 conn=delta model=3 kv=0.22 kw = 0.07181168302412724 pf=0.92 status=variable vmaxpu=1.5 vminpu=0.92 daily="RES_9_SA"
 
New "Load.BT_15851_48_M1" bus1="UC15851.3.4" phases=1 conn=delta model=2 kv=0.22 kw = 0.08934440495353892 pf=0.92 status=variable vmaxpu=1.5 vminpu=0.92 daily="RES_7_SA" 
New "Load.BT_15851_48_M2" bus1="UC15851.3.4" phases=1 conn=delta model=3 kv=0.22 kw = 0.08934440495353892 pf=0.92 status=variable vmaxpu=1.5 vminpu=0.92 daily="RES_7_SA"
 
New "Load.BT_15850_49_M1" bus1="UC15850.3.1.4" phases=2 conn=delta model=2 kv=0.38 kw = 0.14578899181095786 pf=0.92 status=variable vmaxpu=1.5 vminpu=0.92 daily="RES_1_SA" 
New "Load.BT_15850_49_M2" bus1="UC15850.3.1.4" phases=2 conn=delta model=3 kv=0.38 kw = 0.14578899181095786 pf=0.92 status=variable vmaxpu=1.5 vminpu=0.92 daily="RES_1_SA"
 
New "Load.BT_15688_53_M1" bus1="UC15688.1.4" phases=1 conn=delta model=2 kv=0.22 kw = 0.2125821020275004 pf=0.92 status=variable vmaxpu=1.5 vminpu=0.92 daily="RES_3_SA" 
New "Load.BT_15688_53_M2" bus1="UC15688.1.4" phases=1 conn=delta model=3 kv=0.22 kw = 0.2125821020275004 pf=0.92 status=variable vmaxpu=1.5 vminpu=0.92 daily="RES_3_SA"
 
New "Load.BT_10153_54_M1" bus1="UC10153.2.4" phases=1 conn=delta model=2 kv=0.22 kw = 0.4015439704963897 pf=0.92 status=variable vmaxpu=1.5 vminpu=0.92 daily="RES_3_SA" 
New "Load.BT_10153_54_M2" bus1="UC10153.2.4" phases=1 conn=delta model=3 kv=0.22 kw = 0.4015439704963897 pf=0.92 status=variable vmaxpu=1.5 vminpu=0.92 daily="RES_3_SA"
 
New "Load.BT_15497_56_M1" bus1="UC15497.1.4" phases=1 conn=delta model=2 kv=0.22 kw = 0.4328849957358674 pf=0.92 status=variable vmaxpu=1.5 vminpu=0.92 daily="RES_2_SA" 
New "Load.BT_15497_56_M2" bus1="UC15497.1.4" phases=1 conn=delta model=3 kv=0.22 kw = 0.4328849957358674 pf=0.92 status=variable vmaxpu=1.5 vminpu=0.92 daily="RES_2_SA"
 
New "Load.BT_15497_57_M1" bus1="UC15497.3.4" phases=1 conn=delta model=2 kv=0.22 kw = 0.051304888383510217 pf=0.92 status=variable vmaxpu=1.5 vminpu=0.92 daily="RES_2_SA" 
New "Load.BT_15497_57_M2" bus1="UC15497.3.4" phases=1 conn=delta model=3 kv=0.22 kw = 0.051304888383510217 pf=0.92 status=variable vmaxpu=1.5 vminpu=0.92 daily="RES_2_SA"
 
New "Load.BT_5544_59_M1" bus1="UC5544.2.4" phases=1 conn=delta model=2 kv=0.22 kw = 0.3286719412068623 pf=0.92 status=variable vmaxpu=1.5 vminpu=0.92 daily="RES_2_SA" 
New "Load.BT_5544_59_M2" bus1="UC5544.2.4" phases=1 conn=delta model=3 kv=0.22 kw = 0.3286719412068623 pf=0.92 status=variable vmaxpu=1.5 vminpu=0.92 daily="RES_2_SA"
 
New "Load.BT_15499_60_M1" bus1="UC15499.3.4" phases=1 conn=delta model=2 kv=0.22 kw = 0.3126391635870154 pf=0.92 status=variable vmaxpu=1.5 vminpu=0.92 daily="RES_2_SA" 
New "Load.BT_15499_60_M2" bus1="UC15499.3.4" phases=1 conn=delta model=3 kv=0.22 kw = 0.3126391635870154 pf=0.92 status=variable vmaxpu=1.5 vminpu=0.92 daily="RES_2_SA"
 
New "Load.BT_8603_62_M1" bus1="UC8603.1.2.3.4" phases=3 conn=delta model=2 kv=0.38 kw = 0.41231786481244304 pf=0.92 status=variable vmaxpu=1.5 vminpu=0.92 daily="COM_1_SA" 
New "Load.BT_8603_62_M2" bus1="UC8603.1.2.3.4" phases=3 conn=delta model=3 kv=0.38 kw = 0.41231786481244304 pf=0.92 status=variable vmaxpu=1.5 vminpu=0.92 daily="COM_1_SA"
 
New "Load.BT_15509_63_M1" bus1="UC15509.1.2.4" phases=2 conn=delta model=2 kv=0.38 kw = 0.028858999715724493 pf=0.92 status=variable vmaxpu=1.5 vminpu=0.92 daily="RES_2_SA" 
New "Load.BT_15509_63_M2" bus1="UC15509.1.2.4" phases=2 conn=delta model=3 kv=0.38 kw = 0.028858999715724493 pf=0.92 status=variable vmaxpu=1.5 vminpu=0.92 daily="RES_2_SA"
 
New "Load.BT_15510_65_M1" bus1="UC15510.1.2.3.4" phases=3 conn=delta model=2 kv=0.38 kw = 0.44681138268585757 pf=0.92 status=variable vmaxpu=1.5 vminpu=0.92 daily="COM_1_SA" 
New "Load.BT_15510_65_M2" bus1="UC15510.1.2.3.4" phases=3 conn=delta model=3 kv=0.38 kw = 0.44681138268585757 pf=0.92 status=variable vmaxpu=1.5 vminpu=0.92 daily="COM_1_SA"
 
New "Load.BT_6671_66_M1" bus1="UC6671.1.4" phases=1 conn=delta model=2 kv=0.22 kw = 0.12505566543480615 pf=0.92 status=variable vmaxpu=1.5 vminpu=0.92 daily="RES_2_SA" 
New "Load.BT_6671_66_M2" bus1="UC6671.1.4" phases=1 conn=delta model=3 kv=0.22 kw = 0.12505566543480615 pf=0.92 status=variable vmaxpu=1.5 vminpu=0.92 daily="RES_2_SA"
 
New "Load.BT_9626_67_M1" bus1="UC9626.3.4" phases=1 conn=delta model=2 kv=0.22 kw = 0.24690477534564292 pf=0.92 status=variable vmaxpu=1.5 vminpu=0.92 daily="RES_2_SA" 
New "Load.BT_9626_67_M2" bus1="UC9626.3.4" phases=1 conn=delta model=3 kv=0.22 kw = 0.24690477534564292 pf=0.92 status=variable vmaxpu=1.5 vminpu=0.92 daily="RES_2_SA"
 
New "Load.BT_13002_68_M1" bus1="UC13002.3.4" phases=1 conn=delta model=2 kv=0.22 kw = 0.05214136422725447 pf=0.92 status=variable vmaxpu=1.5 vminpu=0.92 daily="COM_1_SA" 
New "Load.BT_13002_68_M2" bus1="UC13002.3.4" phases=1 conn=delta model=3 kv=0.22 kw = 0.05214136422725447 pf=0.92 status=variable vmaxpu=1.5 vminpu=0.92 daily="COM_1_SA"
 
New "Load.BT_13331_69_M1" bus1="UC13331.1.4" phases=1 conn=delta model=2 kv=0.22 kw = 0.0 pf=0.92 status=variable vmaxpu=1.5 vminpu=0.92 daily="RES_2_SA" 
New "Load.BT_13331_69_M2" bus1="UC13331.1.4" phases=1 conn=delta model=3 kv=0.22 kw = 0.0 pf=0.92 status=variable vmaxpu=1.5 vminpu=0.92 daily="RES_2_SA"
 
New "Load.BT_14890_70_M1" bus1="UC14890.1.2.3.4" phases=3 conn=delta model=2 kv=0.38 kw = 0.16353433172243878 pf=0.92 status=variable vmaxpu=1.5 vminpu=0.92 daily="RES_2_SA" 
New "Load.BT_14890_70_M2" bus1="UC14890.1.2.3.4" phases=3 conn=delta model=3 kv=0.38 kw = 0.16353433172243878 pf=0.92 status=variable vmaxpu=1.5 vminpu=0.92 daily="RES_2_SA"
 
New "Load.BT_14890_71_M1" bus1="UC14890.1.2.3.4" phases=3 conn=delta model=2 kv=0.38 kw = 0.18277366486625513 pf=0.92 status=variable vmaxpu=1.5 vminpu=0.92 daily="RES_2_SA" 
New "Load.BT_14890_71_M2" bus1="UC14890.1.2.3.4" phases=3 conn=delta model=3 kv=0.38 kw = 0.18277366486625513 pf=0.92 status=variable vmaxpu=1.5 vminpu=0.92 daily="RES_2_SA"
 
New "Load.BT_15137_72_M1" bus1="UC15137.1.2.3.4" phases=3 conn=delta model=2 kv=0.38 kw = 3.271268974134519 pf=0.92 status=variable vmaxpu=1.5 vminpu=0.92 daily="IND_1_SA" 
New "Load.BT_15137_72_M2" bus1="UC15137.1.2.3.4" phases=3 conn=delta model=3 kv=0.38 kw = 3.271268974134519 pf=0.92 status=variable vmaxpu=1.5 vminpu=0.92 daily="IND_1_SA"
 
New "Load.BT_7113_73_M1" bus1="UC7113.1.4" phases=1 conn=delta model=2 kv=0.22 kw = 0.29179655268121435 pf=0.92 status=variable vmaxpu=1.5 vminpu=0.92 daily="RES_2_SA" 
New "Load.BT_7113_73_M2" bus1="UC7113.1.4" phases=1 conn=delta model=3 kv=0.22 kw = 0.29179655268121435 pf=0.92 status=variable vmaxpu=1.5 vminpu=0.92 daily="RES_2_SA"
 
New "Load.BT_9718_74_M1" bus1="UC9718.1.4" phases=1 conn=delta model=2 kv=0.22 kw = 0.12505566543480615 pf=0.92 status=variable vmaxpu=1.5 vminpu=0.92 daily="RES_2_SA" 
New "Load.BT_9718_74_M2" bus1="UC9718.1.4" phases=1 conn=delta model=3 kv=0.22 kw = 0.12505566543480615 pf=0.92 status=variable vmaxpu=1.5 vminpu=0.92 daily="RES_2_SA"
 
New "Load.BT_10594_76_M1" bus1="UC10594.3.1.4" phases=2 conn=delta model=2 kv=0.38 kw = 0.1760616369386155 pf=0.92 status=variable vmaxpu=1.5 vminpu=0.92 daily="RES_11_SA" 
New "Load.BT_10594_76_M2" bus1="UC10594.3.1.4" phases=2 conn=delta model=3 kv=0.38 kw = 0.1760616369386155 pf=0.92 status=variable vmaxpu=1.5 vminpu=0.92 daily="RES_11_SA"
 
New "Load.BT_15149_77_M1" bus1="UC15149.1.2.4" phases=2 conn=delta model=2 kv=0.38 kw = 0.21002938681999492 pf=0.92 status=variable vmaxpu=1.5 vminpu=0.92 daily="RES_2_SA" 
New "Load.BT_15149_77_M2" bus1="UC15149.1.2.4" phases=2 conn=delta model=3 kv=0.38 kw = 0.21002938681999492 pf=0.92 status=variable vmaxpu=1.5 vminpu=0.92 daily="RES_2_SA"
 
New "Load.BT_13667_78_M1" bus1="UC13667.1.2.3.4" phases=3 conn=delta model=2 kv=0.38 kw = 0.32163985783274013 pf=0.92 status=variable vmaxpu=1.5 vminpu=0.92 daily="RES_7_SA" 
New "Load.BT_13667_78_M2" bus1="UC13667.1.2.3.4" phases=3 conn=delta model=3 kv=0.38 kw = 0.32163985783274013 pf=0.92 status=variable vmaxpu=1.5 vminpu=0.92 daily="RES_7_SA"
 
New "Load.BT_15154_79_M1" bus1="UC15154.3.4" phases=1 conn=delta model=2 kv=0.22 kw = 0.4695761712980852 pf=0.92 status=variable vmaxpu=1.5 vminpu=0.92 daily="RES_1_SA" 
New "Load.BT_15154_79_M2" bus1="UC15154.3.4" phases=1 conn=delta model=3 kv=0.22 kw = 0.4695761712980852 pf=0.92 status=variable vmaxpu=1.5 vminpu=0.92 daily="RES_1_SA"
 
New "Load.BT_15150_80_M1" bus1="UC15150.1.2.3.4" phases=3 conn=delta model=2 kv=0.38 kw = 0.2741604972993827 pf=0.92 status=variable vmaxpu=1.5 vminpu=0.92 daily="RES_2_SA" 
New "Load.BT_15150_80_M2" bus1="UC15150.1.2.3.4" phases=3 conn=delta model=3 kv=0.38 kw = 0.2741604972993827 pf=0.92 status=variable vmaxpu=1.5 vminpu=0.92 daily="RES_2_SA"
 
New "Load.BT_14783_82_M1" bus1="UC14783.1.2.3.4" phases=3 conn=delta model=2 kv=0.38 kw = 0.0849737213851888 pf=0.92 status=variable vmaxpu=1.5 vminpu=0.92 daily="RES_2_SA" 
New "Load.BT_14783_82_M2" bus1="UC14783.1.2.3.4" phases=3 conn=delta model=3 kv=0.38 kw = 0.0849737213851888 pf=0.92 status=variable vmaxpu=1.5 vminpu=0.92 daily="RES_2_SA"
 
New "Load.BT_10551_83_M1" bus1="UC10551.2.4" phases=1 conn=delta model=2 kv=0.22 kw = 0.1236888715201666 pf=0.92 status=variable vmaxpu=1.5 vminpu=0.92 daily="RES_11_SA" 
New "Load.BT_10551_83_M2" bus1="UC10551.2.4" phases=1 conn=delta model=3 kv=0.22 kw = 0.1236888715201666 pf=0.92 status=variable vmaxpu=1.5 vminpu=0.92 daily="RES_11_SA"
 
New "Load.BT_15130_85_M1" bus1="UC15130.3.4" phases=1 conn=delta model=2 kv=0.22 kw = 0.017647846353839973 pf=0.92 status=variable vmaxpu=1.5 vminpu=0.92 daily="COM_1_SA" 
New "Load.BT_15130_85_M2" bus1="UC15130.3.4" phases=1 conn=delta model=3 kv=0.22 kw = 0.017647846353839973 pf=0.92 status=variable vmaxpu=1.5 vminpu=0.92 daily="COM_1_SA"
 
New "Load.BT_11345_91_M1" bus1="UC11345.3.4" phases=1 conn=delta model=2 kv=0.22 kw = 0.03908782834597186 pf=0.92 status=variable vmaxpu=1.5 vminpu=0.92 daily="RES_8_SA" 
New "Load.BT_11345_91_M2" bus1="UC11345.3.4" phases=1 conn=delta model=3 kv=0.22 kw = 0.03908782834597186 pf=0.92 status=variable vmaxpu=1.5 vminpu=0.92 daily="RES_8_SA"
 
New "Load.BT_1871_94_M1" bus1="UC1871.2.4" phases=1 conn=delta model=2 kv=0.22 kw = 0.3774022211925488 pf=0.92 status=variable vmaxpu=1.5 vminpu=0.92 daily="RES_13_SA" 
New "Load.BT_1871_94_M2" bus1="UC1871.2.4" phases=1 conn=delta model=3 kv=0.22 kw = 0.3774022211925488 pf=0.92 status=variable vmaxpu=1.5 vminpu=0.92 daily="RES_13_SA"
 
New "Load.BT_15581_97_M1" bus1="UC15581.1.2.3.4" phases=3 conn=delta model=2 kv=0.38 kw = 0.30887997730491507 pf=0.92 status=variable vmaxpu=1.5 vminpu=0.92 daily="RES_3_SA" 
New "Load.BT_15581_97_M2" bus1="UC15581.1.2.3.4" phases=3 conn=delta model=3 kv=0.38 kw = 0.30887997730491507 pf=0.92 status=variable vmaxpu=1.5 vminpu=0.92 daily="RES_3_SA"
 
New "Load.BT_14653_98_M1" bus1="UC14653.1.2.3.4" phases=3 conn=delta model=2 kv=0.38 kw = 0.6958884194575441 pf=0.92 status=variable vmaxpu=1.5 vminpu=0.92 daily="RES_3_SA" 
New "Load.BT_14653_98_M2" bus1="UC14653.1.2.3.4" phases=3 conn=delta model=3 kv=0.38 kw = 0.6958884194575441 pf=0.92 status=variable vmaxpu=1.5 vminpu=0.92 daily="RES_3_SA"
 
New "Load.BT_8216_99_M1" bus1="UC8216.3.4" phases=1 conn=delta model=2 kv=0.22 kw = 0.20894821994156024 pf=0.92 status=variable vmaxpu=1.5 vminpu=0.92 daily="RES_3_SA" 
New "Load.BT_8216_99_M2" bus1="UC8216.3.4" phases=1 conn=delta model=3 kv=0.22 kw = 0.20894821994156024 pf=0.92 status=variable vmaxpu=1.5 vminpu=0.92 daily="RES_3_SA"
 
New "Load.BT_16125_100_M1" bus1="UC16125.1.2.3.4" phases=3 conn=delta model=2 kv=0.38 kw = 0.049139422724446415 pf=0.92 status=variable vmaxpu=1.5 vminpu=0.92 daily="RES_7_SA" 
New "Load.BT_16125_100_M2" bus1="UC16125.1.2.3.4" phases=3 conn=delta model=3 kv=0.38 kw = 0.049139422724446415 pf=0.92 status=variable vmaxpu=1.5 vminpu=0.92 daily="RES_7_SA"
 
New "Load.BT_16120_101_M1" bus1="UC16120.1.2.3.4" phases=3 conn=delta model=2 kv=0.38 kw = 4.326136623311782 pf=0.92 status=variable vmaxpu=1.5 vminpu=0.92 daily="RES_3_SA" 
New "Load.BT_16120_101_M2" bus1="UC16120.1.2.3.4" phases=3 conn=delta model=3 kv=0.38 kw = 4.326136623311782 pf=0.92 status=variable vmaxpu=1.5 vminpu=0.92 daily="RES_3_SA"
 
New "Load.BT_16117_104_M1" bus1="UC16117.1.4" phases=1 conn=delta model=2 kv=0.22 kw = 0.46150302491440265 pf=0.92 status=variable vmaxpu=1.5 vminpu=0.92 daily="RES_3_SA" 
New "Load.BT_16117_104_M2" bus1="UC16117.1.4" phases=1 conn=delta model=3 kv=0.22 kw = 0.46150302491440265 pf=0.92 status=variable vmaxpu=1.5 vminpu=0.92 daily="RES_3_SA"
 
New "Load.BT_2901_106_M1" bus1="UC2901.2.4" phases=1 conn=delta model=2 kv=0.22 kw = 0.36883903172292803 pf=0.92 status=variable vmaxpu=1.5 vminpu=0.92 daily="RES_3_SA" 
New "Load.BT_2901_106_M2" bus1="UC2901.2.4" phases=1 conn=delta model=3 kv=0.22 kw = 0.36883903172292803 pf=0.92 status=variable vmaxpu=1.5 vminpu=0.92 daily="RES_3_SA"
 
New "Load.BT_8431_107_M1" bus1="UC8431.2.4" phases=1 conn=delta model=2 kv=0.22 kw = 0.43424890926985127 pf=0.92 status=variable vmaxpu=1.5 vminpu=0.92 daily="RES_3_SA" 
New "Load.BT_8431_107_M2" bus1="UC8431.2.4" phases=1 conn=delta model=3 kv=0.22 kw = 0.43424890926985127 pf=0.92 status=variable vmaxpu=1.5 vminpu=0.92 daily="RES_3_SA"
 
New "Load.BT_16128_108_M1" bus1="UC16128.1.4" phases=1 conn=delta model=2 kv=0.22 kw = 0.017868880990707783 pf=0.92 status=variable vmaxpu=1.5 vminpu=0.92 daily="RES_7_SA" 
New "Load.BT_16128_108_M2" bus1="UC16128.1.4" phases=1 conn=delta model=3 kv=0.22 kw = 0.017868880990707783 pf=0.92 status=variable vmaxpu=1.5 vminpu=0.92 daily="RES_7_SA"
 
New "Load.BT_15685_113_M1" bus1="UC15685.1.2.3.4" phases=3 conn=delta model=2 kv=0.38 kw = 0.1684567151957452 pf=0.92 status=variable vmaxpu=1.5 vminpu=0.92 daily="COM_1_SA" 
New "Load.BT_15685_113_M2" bus1="UC15685.1.2.3.4" phases=3 conn=delta model=3 kv=0.38 kw = 0.1684567151957452 pf=0.92 status=variable vmaxpu=1.5 vminpu=0.92 daily="COM_1_SA"
 
New "Load.BT_10153_115_M1" bus1="UC10153.2.4" phases=1 conn=delta model=2 kv=0.22 kw = 0.19399660920014802 pf=0.92 status=variable vmaxpu=1.5 vminpu=0.92 daily="RES_2_SA" 
New "Load.BT_10153_115_M2" bus1="UC10153.2.4" phases=1 conn=delta model=3 kv=0.22 kw = 0.19399660920014802 pf=0.92 status=variable vmaxpu=1.5 vminpu=0.92 daily="RES_2_SA"
 
New "Load.BT_15838_116_M1" bus1="UC15838.2.4" phases=1 conn=delta model=2 kv=0.22 kw = 0.0016032777619846943 pf=0.92 status=variable vmaxpu=1.5 vminpu=0.92 daily="RES_2_SA" 
New "Load.BT_15838_116_M2" bus1="UC15838.2.4" phases=1 conn=delta model=3 kv=0.22 kw = 0.0016032777619846943 pf=0.92 status=variable vmaxpu=1.5 vminpu=0.92 daily="RES_2_SA"
 
New "Load.BT_15839_117_M1" bus1="UC15839.2.3.4" phases=2 conn=delta model=2 kv=0.38 kw = 0.007559124528855501 pf=0.92 status=variable vmaxpu=1.5 vminpu=0.92 daily="RES_9_SA" 
New "Load.BT_15839_117_M2" bus1="UC15839.2.3.4" phases=2 conn=delta model=3 kv=0.38 kw = 0.007559124528855501 pf=0.92 status=variable vmaxpu=1.5 vminpu=0.92 daily="RES_9_SA"
 
New "Load.BT_14029_118_M1" bus1="UC14029.1.4" phases=1 conn=delta model=2 kv=0.22 kw = 0.26133427520350516 pf=0.92 status=variable vmaxpu=1.5 vminpu=0.92 daily="RES_2_SA" 
New "Load.BT_14029_118_M2" bus1="UC14029.1.4" phases=1 conn=delta model=3 kv=0.22 kw = 0.26133427520350516 pf=0.92 status=variable vmaxpu=1.5 vminpu=0.92 daily="RES_2_SA"
 
New "Load.BT_15841_120_M1" bus1="UC15841.2.4" phases=1 conn=delta model=2 kv=0.22 kw = 0.005357598862966748 pf=0.92 status=variable vmaxpu=1.5 vminpu=0.92 daily="RES_4_SA" 
New "Load.BT_15841_120_M2" bus1="UC15841.2.4" phases=1 conn=delta model=3 kv=0.22 kw = 0.005357598862966748 pf=0.92 status=variable vmaxpu=1.5 vminpu=0.92 daily="RES_4_SA"
 
New "Load.BT_358_126_M1" bus1="UC358.3.1.4" phases=2 conn=delta model=2 kv=0.38 kw = 0.5061723204215011 pf=0.92 status=variable vmaxpu=1.5 vminpu=0.92 daily="COM_1_SA" 
New "Load.BT_358_126_M2" bus1="UC358.3.1.4" phases=2 conn=delta model=3 kv=0.38 kw = 0.5061723204215011 pf=0.92 status=variable vmaxpu=1.5 vminpu=0.92 daily="COM_1_SA"
 
New "Load.BT_6892_128_M1" bus1="UC6892.2.4" phases=1 conn=delta model=2 kv=0.22 kw = 0.1090228878149592 pf=0.92 status=variable vmaxpu=1.5 vminpu=0.92 daily="RES_2_SA" 
New "Load.BT_6892_128_M2" bus1="UC6892.2.4" phases=1 conn=delta model=3 kv=0.22 kw = 0.1090228878149592 pf=0.92 status=variable vmaxpu=1.5 vminpu=0.92 daily="RES_2_SA"
 
New "Load.BT_14783_129_M1" bus1="UC14783.1.2.3.4" phases=3 conn=delta model=2 kv=0.38 kw = 0.12345238767282146 pf=0.92 status=variable vmaxpu=1.5 vminpu=0.92 daily="RES_2_SA" 
New "Load.BT_14783_129_M2" bus1="UC14783.1.2.3.4" phases=3 conn=delta model=3 kv=0.38 kw = 0.12345238767282146 pf=0.92 status=variable vmaxpu=1.5 vminpu=0.92 daily="RES_2_SA"
 
New "Load.BT_15490_130_M1" bus1="UC15490.2.4" phases=1 conn=delta model=2 kv=0.22 kw = 0.29179655268121435 pf=0.92 status=variable vmaxpu=1.5 vminpu=0.92 daily="RES_2_SA" 
New "Load.BT_15490_130_M2" bus1="UC15490.2.4" phases=1 conn=delta model=3 kv=0.22 kw = 0.29179655268121435 pf=0.92 status=variable vmaxpu=1.5 vminpu=0.92 daily="RES_2_SA"
 
New "Load.BT_15492_131_M1" bus1="UC15492.1.2.3.4" phases=3 conn=delta model=2 kv=0.38 kw = 0.04489177733557144 pf=0.92 status=variable vmaxpu=1.5 vminpu=0.92 daily="RES_2_SA" 
New "Load.BT_15492_131_M2" bus1="UC15492.1.2.3.4" phases=3 conn=delta model=3 kv=0.38 kw = 0.04489177733557144 pf=0.92 status=variable vmaxpu=1.5 vminpu=0.92 daily="RES_2_SA"
 
New "Load.BT_15495_133_M1" bus1="UC15495.1.2.3.4" phases=3 conn=delta model=2 kv=0.38 kw = 0.11070012712863257 pf=0.92 status=variable vmaxpu=1.5 vminpu=0.92 daily="COM_1_SA" 
New "Load.BT_15495_133_M2" bus1="UC15495.1.2.3.4" phases=3 conn=delta model=3 kv=0.38 kw = 0.11070012712863257 pf=0.92 status=variable vmaxpu=1.5 vminpu=0.92 daily="COM_1_SA"
 
New "Load.BT_15493_134_M1" bus1="UC15493.2.4" phases=1 conn=delta model=2 kv=0.22 kw = 0.251714608631597 pf=0.92 status=variable vmaxpu=1.5 vminpu=0.92 daily="RES_2_SA" 
New "Load.BT_15493_134_M2" bus1="UC15493.2.4" phases=1 conn=delta model=3 kv=0.22 kw = 0.251714608631597 pf=0.92 status=variable vmaxpu=1.5 vminpu=0.92 daily="RES_2_SA"
 
New "Load.BT_15496_135_M1" bus1="UC15496.3.4" phases=1 conn=delta model=2 kv=0.38 kw = 0.18598022039022452 pf=0.92 status=variable vmaxpu=1.5 vminpu=0.92 daily="RES_2_SA" 
New "Load.BT_15496_135_M2" bus1="UC15496.3.4" phases=1 conn=delta model=3 kv=0.38 kw = 0.18598022039022452 pf=0.92 status=variable vmaxpu=1.5 vminpu=0.92 daily="RES_2_SA"
 
New "Load.BT_14400_138_M1" bus1="UC14400.1.4" phases=1 conn=delta model=2 kv=0.22 kw = 0.1314687764827449 pf=0.92 status=variable vmaxpu=1.5 vminpu=0.92 daily="RES_2_SA" 
New "Load.BT_14400_138_M2" bus1="UC14400.1.4" phases=1 conn=delta model=3 kv=0.22 kw = 0.1314687764827449 pf=0.92 status=variable vmaxpu=1.5 vminpu=0.92 daily="RES_2_SA"
 
New "Load.BT_6077_139_M1" bus1="UC6077.1.4" phases=1 conn=delta model=2 kv=0.22 kw = 0.20682283129602555 pf=0.92 status=variable vmaxpu=1.5 vminpu=0.92 daily="RES_2_SA" 
New "Load.BT_6077_139_M2" bus1="UC6077.1.4" phases=1 conn=delta model=3 kv=0.22 kw = 0.20682283129602555 pf=0.92 status=variable vmaxpu=1.5 vminpu=0.92 daily="RES_2_SA"
 
New "Load.BT_7595_141_M1" bus1="UC7595.2.3.4" phases=2 conn=delta model=2 kv=0.38 kw = 0.6410461055416418 pf=0.92 status=variable vmaxpu=1.5 vminpu=0.92 daily="RES_7_SA" 
New "Load.BT_7595_141_M2" bus1="UC7595.2.3.4" phases=2 conn=delta model=3 kv=0.38 kw = 0.6410461055416418 pf=0.92 status=variable vmaxpu=1.5 vminpu=0.92 daily="RES_7_SA"
 
New "Load.BT_10551_142_M1" bus1="UC10551.3.4" phases=1 conn=delta model=2 kv=0.22 kw = 0.1693757519915795 pf=0.92 status=variable vmaxpu=1.5 vminpu=0.92 daily="RES_11_SA" 
New "Load.BT_10551_142_M2" bus1="UC10551.3.4" phases=1 conn=delta model=3 kv=0.22 kw = 0.1693757519915795 pf=0.92 status=variable vmaxpu=1.5 vminpu=0.92 daily="RES_11_SA"
 
New "Load.BT_8865_145_M1" bus1="UC8865.3.4" phases=1 conn=delta model=2 kv=0.22 kw = 0.32508904201734395 pf=0.92 status=variable vmaxpu=1.5 vminpu=0.92 daily="RES_13_SA" 
New "Load.BT_8865_145_M2" bus1="UC8865.3.4" phases=1 conn=delta model=3 kv=0.22 kw = 0.32508904201734395 pf=0.92 status=variable vmaxpu=1.5 vminpu=0.92 daily="RES_13_SA"
 
New "Load.BT_5847_147_M1" bus1="UC5847.2.4" phases=1 conn=delta model=2 kv=0.22 kw = 0.3944063294482348 pf=0.92 status=variable vmaxpu=1.5 vminpu=0.92 daily="RES_2_SA" 
New "Load.BT_5847_147_M2" bus1="UC5847.2.4" phases=1 conn=delta model=3 kv=0.22 kw = 0.3944063294482348 pf=0.92 status=variable vmaxpu=1.5 vminpu=0.92 daily="RES_2_SA"
 
New "Load.BT_8287_148_M1" bus1="UC8287.2.4" phases=1 conn=delta model=2 kv=0.22 kw = 0.6040376502018863 pf=0.92 status=variable vmaxpu=1.5 vminpu=0.92 daily="COM_1_SA" 
New "Load.BT_8287_148_M2" bus1="UC8287.2.4" phases=1 conn=delta model=3 kv=0.22 kw = 0.6040376502018863 pf=0.92 status=variable vmaxpu=1.5 vminpu=0.92 daily="COM_1_SA"
 
New "Load.BT_14783_149_M1" bus1="UC14783.1.2.3.4" phases=3 conn=delta model=2 kv=0.38 kw = 0.1122294433389286 pf=0.92 status=variable vmaxpu=1.5 vminpu=0.92 daily="RES_2_SA" 
New "Load.BT_14783_149_M2" bus1="UC14783.1.2.3.4" phases=3 conn=delta model=3 kv=0.38 kw = 0.1122294433389286 pf=0.92 status=variable vmaxpu=1.5 vminpu=0.92 daily="RES_2_SA"
 
New "Load.BT_8105_150_M1" bus1="UC8105.2.4" phases=1 conn=delta model=2 kv=0.22 kw = 0.03208699337061814 pf=0.92 status=variable vmaxpu=1.5 vminpu=0.92 daily="COM_1_SA" 
New "Load.BT_8105_150_M2" bus1="UC8105.2.4" phases=1 conn=delta model=3 kv=0.22 kw = 0.03208699337061814 pf=0.92 status=variable vmaxpu=1.5 vminpu=0.92 daily="COM_1_SA"
 
New "Load.BT_14783_151_M1" bus1="UC14783.1.2.3.4" phases=3 conn=delta model=2 kv=0.38 kw = 0.5643337468991642 pf=0.92 status=variable vmaxpu=1.5 vminpu=0.92 daily="RES_4_SA" 
New "Load.BT_14783_151_M2" bus1="UC14783.1.2.3.4" phases=3 conn=delta model=3 kv=0.38 kw = 0.5643337468991642 pf=0.92 status=variable vmaxpu=1.5 vminpu=0.92 daily="RES_4_SA"
 
New "Load.BT_11184_154_M1" bus1="UC11184.3.4" phases=1 conn=delta model=2 kv=0.22 kw = 0.13371769894072066 pf=0.92 status=variable vmaxpu=1.5 vminpu=0.92 daily="RES_11_SA" 
New "Load.BT_11184_154_M2" bus1="UC11184.3.4" phases=1 conn=delta model=3 kv=0.22 kw = 0.13371769894072066 pf=0.92 status=variable vmaxpu=1.5 vminpu=0.92 daily="RES_11_SA"
 
New "Load.BT_14890_155_M1" bus1="UC14890.1.2.3.4" phases=3 conn=delta model=2 kv=0.38 kw = 0.40428343241476355 pf=0.92 status=variable vmaxpu=1.5 vminpu=0.92 daily="RES_7_SA" 
New "Load.BT_14890_155_M2" bus1="UC14890.1.2.3.4" phases=3 conn=delta model=3 kv=0.38 kw = 0.40428343241476355 pf=0.92 status=variable vmaxpu=1.5 vminpu=0.92 daily="RES_7_SA"
 
New "Load.BT_15109_157_M1" bus1="UC15109.1.4" phases=1 conn=delta model=2 kv=0.22 kw = 0.2373309169015593 pf=0.92 status=variable vmaxpu=1.5 vminpu=0.92 daily="RES_1_SA" 
New "Load.BT_15109_157_M2" bus1="UC15109.1.4" phases=1 conn=delta model=3 kv=0.22 kw = 0.2373309169015593 pf=0.92 status=variable vmaxpu=1.5 vminpu=0.92 daily="RES_1_SA"
 
New "Load.BT_10549_159_M1" bus1="UC10549.2.4" phases=1 conn=delta model=2 kv=0.22 kw = 0.003208699337061813 pf=0.92 status=variable vmaxpu=1.5 vminpu=0.92 daily="COM_1_SA" 
New "Load.BT_10549_159_M2" bus1="UC10549.2.4" phases=1 conn=delta model=3 kv=0.22 kw = 0.003208699337061813 pf=0.92 status=variable vmaxpu=1.5 vminpu=0.92 daily="COM_1_SA"
 
New "Load.BT_15090_162_M1" bus1="UC15090.3.4" phases=1 conn=delta model=2 kv=0.22 kw = 0.26163951018769277 pf=0.92 status=variable vmaxpu=1.5 vminpu=0.92 daily="RES_3_SA" 
New "Load.BT_15090_162_M2" bus1="UC15090.3.4" phases=1 conn=delta model=3 kv=0.22 kw = 0.26163951018769277 pf=0.92 status=variable vmaxpu=1.5 vminpu=0.92 daily="RES_3_SA"
 
New "Load.BT_11074_165_M1" bus1="UC11074.2.4" phases=1 conn=delta model=2 kv=0.22 kw = 0.16715857595324818 pf=0.92 status=variable vmaxpu=1.5 vminpu=0.92 daily="RES_3_SA" 
New "Load.BT_11074_165_M2" bus1="UC11074.2.4" phases=1 conn=delta model=3 kv=0.22 kw = 0.16715857595324818 pf=0.92 status=variable vmaxpu=1.5 vminpu=0.92 daily="RES_3_SA"
 
New "Load.BT_15673_170_M1" bus1="UC15673.2.3.4" phases=2 conn=delta model=2 kv=0.38 kw = 0.5378145487191464 pf=0.92 status=variable vmaxpu=1.5 vminpu=0.92 daily="RES_3_SA" 
New "Load.BT_15673_170_M2" bus1="UC15673.2.3.4" phases=2 conn=delta model=3 kv=0.38 kw = 0.5378145487191464 pf=0.92 status=variable vmaxpu=1.5 vminpu=0.92 daily="RES_3_SA"
 
New "Load.BT_14821_172_M1" bus1="UC14821.3.4" phases=1 conn=delta model=2 kv=0.22 kw = 0.17624328116809862 pf=0.92 status=variable vmaxpu=1.5 vminpu=0.92 daily="RES_3_SA" 
New "Load.BT_14821_172_M2" bus1="UC14821.3.4" phases=1 conn=delta model=3 kv=0.22 kw = 0.17624328116809862 pf=0.92 status=variable vmaxpu=1.5 vminpu=0.92 daily="RES_3_SA"
 
New "Load.BT_12804_173_M1" bus1="UC12804.1.4" phases=1 conn=delta model=2 kv=0.22 kw = 0.13808751926572677 pf=0.92 status=variable vmaxpu=1.5 vminpu=0.92 daily="RES_3_SA" 
New "Load.BT_12804_173_M2" bus1="UC12804.1.4" phases=1 conn=delta model=3 kv=0.22 kw = 0.13808751926572677 pf=0.92 status=variable vmaxpu=1.5 vminpu=0.92 daily="RES_3_SA"
 
New "Load.BT_11814_175_M1" bus1="UC11814.2.4" phases=1 conn=delta model=2 kv=0.22 kw = 0.5026392896713932 pf=0.92 status=variable vmaxpu=1.5 vminpu=0.92 daily="RES_6_SA" 
New "Load.BT_11814_175_M2" bus1="UC11814.2.4" phases=1 conn=delta model=3 kv=0.22 kw = 0.5026392896713932 pf=0.92 status=variable vmaxpu=1.5 vminpu=0.92 daily="RES_6_SA"
 
New "Load.BT_15821_176_M1" bus1="UC15821.1.2.3.4" phases=3 conn=delta model=2 kv=0.38 kw = 0.6092455495541838 pf=0.92 status=variable vmaxpu=1.5 vminpu=0.92 daily="RES_2_SA" 
New "Load.BT_15821_176_M2" bus1="UC15821.1.2.3.4" phases=3 conn=delta model=3 kv=0.38 kw = 0.6092455495541838 pf=0.92 status=variable vmaxpu=1.5 vminpu=0.92 daily="RES_2_SA"
 
New "Load.BT_7495_177_M1" bus1="UC7495.2.4" phases=1 conn=delta model=2 kv=0.22 kw = 0.36178085025371953 pf=0.92 status=variable vmaxpu=1.5 vminpu=0.92 daily="COM_1_SA" 
New "Load.BT_7495_177_M2" bus1="UC7495.2.4" phases=1 conn=delta model=3 kv=0.22 kw = 0.36178085025371953 pf=0.92 status=variable vmaxpu=1.5 vminpu=0.92 daily="COM_1_SA"
 
New "Load.BT_5102_178_M1" bus1="UC5102.3.4" phases=1 conn=delta model=2 kv=0.22 kw = 0.46109885250846816 pf=0.92 status=variable vmaxpu=1.5 vminpu=0.92 daily="RES_6_SA" 
New "Load.BT_5102_178_M2" bus1="UC5102.3.4" phases=1 conn=delta model=3 kv=0.22 kw = 0.46109885250846816 pf=0.92 status=variable vmaxpu=1.5 vminpu=0.92 daily="RES_6_SA"
 
New "Load.BT_1753_179_M1" bus1="UC1753.3.4" phases=1 conn=delta model=2 kv=0.22 kw = 0.6701701045096022 pf=0.92 status=variable vmaxpu=1.5 vminpu=0.92 daily="RES_2_SA" 
New "Load.BT_1753_179_M2" bus1="UC1753.3.4" phases=1 conn=delta model=3 kv=0.22 kw = 0.6701701045096022 pf=0.92 status=variable vmaxpu=1.5 vminpu=0.92 daily="RES_2_SA"
 
New "Load.BT_11184_183_M1" bus1="UC11184.3.4" phases=1 conn=delta model=2 kv=0.22 kw = 0.06425255849527176 pf=0.92 status=variable vmaxpu=1.5 vminpu=0.92 daily="RES_9_SA" 
New "Load.BT_11184_183_M2" bus1="UC11184.3.4" phases=1 conn=delta model=3 kv=0.22 kw = 0.06425255849527176 pf=0.92 status=variable vmaxpu=1.5 vminpu=0.92 daily="RES_9_SA"
 
New "Load.BT_15510_185_M1" bus1="UC15510.1.2.3.4" phases=3 conn=delta model=2 kv=0.38 kw = 0.004723612071213113 pf=0.92 status=variable vmaxpu=1.5 vminpu=0.92 daily="COM_12_SA" 
New "Load.BT_15510_185_M2" bus1="UC15510.1.2.3.4" phases=3 conn=delta model=3 kv=0.38 kw = 0.004723612071213113 pf=0.92 status=variable vmaxpu=1.5 vminpu=0.92 daily="COM_12_SA"
 
New "Load.BT_15793_186_M1" bus1="UC15793.1.2.3.4" phases=3 conn=delta model=2 kv=0.38 kw = 0.14679799467057797 pf=0.92 status=variable vmaxpu=1.5 vminpu=0.92 daily="COM_1_SA" 
New "Load.BT_15793_186_M2" bus1="UC15793.1.2.3.4" phases=3 conn=delta model=3 kv=0.38 kw = 0.14679799467057797 pf=0.92 status=variable vmaxpu=1.5 vminpu=0.92 daily="COM_1_SA"
 
New "Load.BT_15796_188_M1" bus1="UC15796.3.4" phases=1 conn=delta model=2 kv=0.22 kw = 0.009619666571908166 pf=0.92 status=variable vmaxpu=1.5 vminpu=0.92 daily="RES_2_SA" 
New "Load.BT_15796_188_M2" bus1="UC15796.3.4" phases=1 conn=delta model=3 kv=0.22 kw = 0.009619666571908166 pf=0.92 status=variable vmaxpu=1.5 vminpu=0.92 daily="RES_2_SA"
 
New "Load.BT_15798_190_M1" bus1="UC15798.1.2.3.4" phases=3 conn=delta model=2 kv=0.38 kw = 0.014837584991941856 pf=0.92 status=variable vmaxpu=1.5 vminpu=0.92 daily="RES_12_SA" 
New "Load.BT_15798_190_M2" bus1="UC15798.1.2.3.4" phases=3 conn=delta model=3 kv=0.38 kw = 0.014837584991941856 pf=0.92 status=variable vmaxpu=1.5 vminpu=0.92 daily="RES_12_SA"
 
New "Load.BT_10578_191_M1" bus1="UC10578.1.4" phases=1 conn=delta model=2 kv=0.22 kw = 0.38864816154789433 pf=0.92 status=variable vmaxpu=1.5 vminpu=0.92 daily="RES_7_SA" 
New "Load.BT_10578_191_M2" bus1="UC10578.1.4" phases=1 conn=delta model=3 kv=0.22 kw = 0.38864816154789433 pf=0.92 status=variable vmaxpu=1.5 vminpu=0.92 daily="RES_7_SA"
 
New "Load.BT_9738_192_M1" bus1="UC9738.1.4" phases=1 conn=delta model=2 kv=0.22 kw = 0.6978793443371409 pf=0.92 status=variable vmaxpu=1.5 vminpu=0.92 daily="RES_6_SA" 
New "Load.BT_9738_192_M2" bus1="UC9738.1.4" phases=1 conn=delta model=3 kv=0.22 kw = 0.6978793443371409 pf=0.92 status=variable vmaxpu=1.5 vminpu=0.92 daily="RES_6_SA"
 
New "Load.BT_6242_193_M1" bus1="UC6242.2.4" phases=1 conn=delta model=2 kv=0.22 kw = 0.0849737213851888 pf=0.92 status=variable vmaxpu=1.5 vminpu=0.92 daily="RES_2_SA" 
New "Load.BT_6242_193_M2" bus1="UC6242.2.4" phases=1 conn=delta model=3 kv=0.22 kw = 0.0849737213851888 pf=0.92 status=variable vmaxpu=1.5 vminpu=0.92 daily="RES_2_SA"
 
New "Load.BT_11814_195_M1" bus1="UC11814.2.4" phases=1 conn=delta model=2 kv=0.22 kw = 0.060472996230844005 pf=0.92 status=variable vmaxpu=1.5 vminpu=0.92 daily="RES_9_SA" 
New "Load.BT_11814_195_M2" bus1="UC11814.2.4" phases=1 conn=delta model=3 kv=0.22 kw = 0.060472996230844005 pf=0.92 status=variable vmaxpu=1.5 vminpu=0.92 daily="RES_9_SA"
 
New "Load.BT_6619_196_M1" bus1="UC6619.3.4" phases=1 conn=delta model=2 kv=0.22 kw = 0.11062616557694391 pf=0.92 status=variable vmaxpu=1.5 vminpu=0.92 daily="RES_2_SA" 
New "Load.BT_6619_196_M2" bus1="UC6619.3.4" phases=1 conn=delta model=3 kv=0.22 kw = 0.11062616557694391 pf=0.92 status=variable vmaxpu=1.5 vminpu=0.92 daily="RES_2_SA"
 
New "Load.BT_15805_197_M1" bus1="UC15805.1.4" phases=1 conn=delta model=2 kv=0.22 kw = 0.0016032777619846943 pf=0.92 status=variable vmaxpu=1.5 vminpu=0.92 daily="RES_2_SA" 
New "Load.BT_15805_197_M2" bus1="UC15805.1.4" phases=1 conn=delta model=3 kv=0.22 kw = 0.0016032777619846943 pf=0.92 status=variable vmaxpu=1.5 vminpu=0.92 daily="RES_2_SA"
 
New "Load.BT_15807_199_M1" bus1="UC15807.1.2.3.4" phases=3 conn=delta model=2 kv=0.38 kw = 11.104506230736671 pf=0.92 status=variable vmaxpu=1.5 vminpu=0.92 daily="COM_1_SA" 
New "Load.BT_15807_199_M2" bus1="UC15807.1.2.3.4" phases=3 conn=delta model=3 kv=0.38 kw = 11.104506230736671 pf=0.92 status=variable vmaxpu=1.5 vminpu=0.92 daily="COM_1_SA"
 
New "Load.BT_14335_200_M1" bus1="UC14335.2.4" phases=1 conn=delta model=2 kv=0.22 kw = 0.1891867759141939 pf=0.92 status=variable vmaxpu=1.5 vminpu=0.92 daily="RES_2_SA" 
New "Load.BT_14335_200_M2" bus1="UC14335.2.4" phases=1 conn=delta model=3 kv=0.22 kw = 0.1891867759141939 pf=0.92 status=variable vmaxpu=1.5 vminpu=0.92 daily="RES_2_SA"
 
New "Load.BT_12650_202_M1" bus1="UC12650.2.3.4" phases=2 conn=delta model=2 kv=0.38 kw = 0.2239771457257071 pf=0.92 status=variable vmaxpu=1.5 vminpu=0.92 daily="RES_11_SA" 
New "Load.BT_12650_202_M2" bus1="UC12650.2.3.4" phases=2 conn=delta model=3 kv=0.38 kw = 0.2239771457257071 pf=0.92 status=variable vmaxpu=1.5 vminpu=0.92 daily="RES_11_SA"
 
New "Load.BT_10383_203_M1" bus1="UC10383.2.4" phases=1 conn=delta model=2 kv=0.22 kw = 0.15968650567207246 pf=0.92 status=variable vmaxpu=1.5 vminpu=0.92 daily="RES_9_SA" 
New "Load.BT_10383_203_M2" bus1="UC10383.2.4" phases=1 conn=delta model=3 kv=0.22 kw = 0.15968650567207246 pf=0.92 status=variable vmaxpu=1.5 vminpu=0.92 daily="RES_9_SA"
 
New "Load.BT_14653_204_M1" bus1="UC14653.1.2.3.4" phases=3 conn=delta model=2 kv=0.38 kw = 0.3960096072102195 pf=0.92 status=variable vmaxpu=1.5 vminpu=0.92 daily="RES_2_SA" 
New "Load.BT_14653_204_M2" bus1="UC14653.1.2.3.4" phases=3 conn=delta model=3 kv=0.38 kw = 0.3960096072102195 pf=0.92 status=variable vmaxpu=1.5 vminpu=0.92 daily="RES_2_SA"
 
New "Load.BT_5977_205_M1" bus1="UC5977.2.4" phases=1 conn=delta model=2 kv=0.22 kw = 0.07695733257526532 pf=0.92 status=variable vmaxpu=1.5 vminpu=0.92 daily="RES_2_SA" 
New "Load.BT_5977_205_M2" bus1="UC5977.2.4" phases=1 conn=delta model=3 kv=0.22 kw = 0.07695733257526532 pf=0.92 status=variable vmaxpu=1.5 vminpu=0.92 daily="RES_2_SA"
 
New "Load.BT_14783_206_M1" bus1="UC14783.1.2.3.4" phases=3 conn=delta model=2 kv=0.38 kw = 0.15551794291251533 pf=0.92 status=variable vmaxpu=1.5 vminpu=0.92 daily="RES_2_SA" 
New "Load.BT_14783_206_M2" bus1="UC14783.1.2.3.4" phases=3 conn=delta model=3 kv=0.38 kw = 0.15551794291251533 pf=0.92 status=variable vmaxpu=1.5 vminpu=0.92 daily="RES_2_SA"
 
New "Load.BT_6236_207_M1" bus1="UC6236.1.2.3.4" phases=3 conn=delta model=2 kv=0.38 kw = 0.171665414532807 pf=0.92 status=variable vmaxpu=1.5 vminpu=0.92 daily="COM_1_SA" 
New "Load.BT_6236_207_M2" bus1="UC6236.1.2.3.4" phases=3 conn=delta model=3 kv=0.38 kw = 0.171665414532807 pf=0.92 status=variable vmaxpu=1.5 vminpu=0.92 daily="COM_1_SA"
 
New "Load.BT_13253_208_M1" bus1="UC13253.1.2.4" phases=2 conn=delta model=2 kv=0.38 kw = 0.1378818875306837 pf=0.92 status=variable vmaxpu=1.5 vminpu=0.92 daily="RES_2_SA" 
New "Load.BT_13253_208_M2" bus1="UC13253.1.2.4" phases=2 conn=delta model=3 kv=0.38 kw = 0.1378818875306837 pf=0.92 status=variable vmaxpu=1.5 vminpu=0.92 daily="RES_2_SA"
 
New "Load.BT_15079_209_M1" bus1="UC15079.3.4" phases=1 conn=delta model=2 kv=0.22 kw = 0.17271869446509752 pf=0.92 status=variable vmaxpu=1.5 vminpu=0.92 daily="RES_11_SA" 
New "Load.BT_15079_209_M2" bus1="UC15079.3.4" phases=1 conn=delta model=3 kv=0.22 kw = 0.17271869446509752 pf=0.92 status=variable vmaxpu=1.5 vminpu=0.92 daily="RES_11_SA"
 
New "Load.BT_2860_210_M1" bus1="UC2860.2.4" phases=1 conn=delta model=2 kv=0.22 kw = 0.18277366486625513 pf=0.92 status=variable vmaxpu=1.5 vminpu=0.92 daily="RES_2_SA" 
New "Load.BT_2860_210_M2" bus1="UC2860.2.4" phases=1 conn=delta model=3 kv=0.22 kw = 0.18277366486625513 pf=0.92 status=variable vmaxpu=1.5 vminpu=0.92 daily="RES_2_SA"
 
New "Load.BT_14783_211_M1" bus1="UC14783.1.2.3.4" phases=3 conn=delta model=2 kv=0.38 kw = 0.07856386885101252 pf=0.92 status=variable vmaxpu=1.5 vminpu=0.92 daily="RES_5_SA" 
New "Load.BT_14783_211_M2" bus1="UC14783.1.2.3.4" phases=3 conn=delta model=3 kv=0.38 kw = 0.07856386885101252 pf=0.92 status=variable vmaxpu=1.5 vminpu=0.92 daily="RES_5_SA"
 
New "Load.BT_5377_212_M1" bus1="UC5377.3.4" phases=1 conn=delta model=2 kv=0.22 kw = 0.04767334131169413 pf=0.92 status=variable vmaxpu=1.5 vminpu=0.92 daily="COM_5_SA" 
New "Load.BT_5377_212_M2" bus1="UC5377.3.4" phases=1 conn=delta model=3 kv=0.22 kw = 0.04767334131169413 pf=0.92 status=variable vmaxpu=1.5 vminpu=0.92 daily="COM_5_SA"
 
New "Load.BT_15362_213_M1" bus1="UC15362.3.1.4" phases=2 conn=delta model=2 kv=0.38 kw = 0.27254115644551336 pf=0.92 status=variable vmaxpu=1.5 vminpu=0.92 daily="RES_3_SA" 
New "Load.BT_15362_213_M2" bus1="UC15362.3.1.4" phases=2 conn=delta model=3 kv=0.38 kw = 0.27254115644551336 pf=0.92 status=variable vmaxpu=1.5 vminpu=0.92 daily="RES_3_SA"
 
New "Load.BT_15362_214_M1" bus1="UC15362.1.2.4" phases=2 conn=delta model=2 kv=0.38 kw = 0.4687707890862829 pf=0.92 status=variable vmaxpu=1.5 vminpu=0.92 daily="RES_3_SA" 
New "Load.BT_15362_214_M2" bus1="UC15362.1.2.4" phases=2 conn=delta model=3 kv=0.38 kw = 0.4687707890862829 pf=0.92 status=variable vmaxpu=1.5 vminpu=0.92 daily="RES_3_SA"
 
New "Load.BT_2835_215_M1" bus1="UC2835.3.4" phases=1 conn=delta model=2 kv=0.22 kw = 0.14535528343760712 pf=0.92 status=variable vmaxpu=1.5 vminpu=0.92 daily="RES_3_SA" 
New "Load.BT_2835_215_M2" bus1="UC2835.3.4" phases=1 conn=delta model=3 kv=0.22 kw = 0.14535528343760712 pf=0.92 status=variable vmaxpu=1.5 vminpu=0.92 daily="RES_3_SA"
 
New "Load.BT_16096_217_M1" bus1="UC16096.2.4" phases=1 conn=delta model=2 kv=0.22 kw = 0.004467220247676946 pf=0.92 status=variable vmaxpu=1.5 vminpu=0.92 daily="RES_7_SA" 
New "Load.BT_16096_217_M2" bus1="UC16096.2.4" phases=1 conn=delta model=3 kv=0.22 kw = 0.004467220247676946 pf=0.92 status=variable vmaxpu=1.5 vminpu=0.92 daily="RES_7_SA"
 
New "Load.BT_16099_218_M1" bus1="UC16099.3.4" phases=1 conn=delta model=2 kv=0.22 kw = 0.0 pf=0.92 status=variable vmaxpu=1.5 vminpu=0.92 daily="COM_1_SA" 
New "Load.BT_16099_218_M2" bus1="UC16099.3.4" phases=1 conn=delta model=3 kv=0.22 kw = 0.0 pf=0.92 status=variable vmaxpu=1.5 vminpu=0.92 daily="COM_1_SA"
 
New "Load.BT_8981_219_M1" bus1="UC8981.3.4" phases=1 conn=delta model=2 kv=0.22 kw = 0.10274606569656976 pf=0.92 status=variable vmaxpu=1.5 vminpu=0.92 daily="RES_7_SA" 
New "Load.BT_8981_219_M2" bus1="UC8981.3.4" phases=1 conn=delta model=3 kv=0.22 kw = 0.10274606569656976 pf=0.92 status=variable vmaxpu=1.5 vminpu=0.92 daily="RES_7_SA"
 
New "Load.BT_16100_220_M1" bus1="UC16100.3.4" phases=1 conn=delta model=2 kv=0.22 kw = 0.13808751926572677 pf=0.92 status=variable vmaxpu=1.5 vminpu=0.92 daily="RES_3_SA" 
New "Load.BT_16100_220_M2" bus1="UC16100.3.4" phases=1 conn=delta model=3 kv=0.22 kw = 0.13808751926572677 pf=0.92 status=variable vmaxpu=1.5 vminpu=0.92 daily="RES_3_SA"
 
New "Load.BT_16103_221_M1" bus1="UC16103.3.4" phases=1 conn=delta model=2 kv=0.22 kw = 0.2289345714142312 pf=0.92 status=variable vmaxpu=1.5 vminpu=0.92 daily="RES_3_SA" 
New "Load.BT_16103_221_M2" bus1="UC16103.3.4" phases=1 conn=delta model=3 kv=0.22 kw = 0.2289345714142312 pf=0.92 status=variable vmaxpu=1.5 vminpu=0.92 daily="RES_3_SA"
 
New "Load.BT_15510_223_M1" bus1="UC15510.1.2.4" phases=2 conn=delta model=2 kv=0.38 kw = 0.31251385939085524 pf=0.92 status=variable vmaxpu=1.5 vminpu=0.92 daily="RES_3_SA" 
New "Load.BT_15510_223_M2" bus1="UC15510.1.2.4" phases=2 conn=delta model=3 kv=0.38 kw = 0.31251385939085524 pf=0.92 status=variable vmaxpu=1.5 vminpu=0.92 daily="RES_3_SA"
 
New "Load.BT_15362_224_M1" bus1="UC15362.1.2.3.4" phases=3 conn=delta model=2 kv=0.38 kw = 0.0 pf=0.92 status=variable vmaxpu=1.5 vminpu=0.92 daily="COM_5_SA" 
New "Load.BT_15362_224_M2" bus1="UC15362.1.2.3.4" phases=3 conn=delta model=3 kv=0.38 kw = 0.0 pf=0.92 status=variable vmaxpu=1.5 vminpu=0.92 daily="COM_5_SA"
 
New "Load.BT_11074_225_M1" bus1="UC11074.3.4" phases=1 conn=delta model=2 kv=0.22 kw = 0.05959167663961766 pf=0.92 status=variable vmaxpu=1.5 vminpu=0.92 daily="COM_5_SA" 
New "Load.BT_11074_225_M2" bus1="UC11074.3.4" phases=1 conn=delta model=3 kv=0.22 kw = 0.05959167663961766 pf=0.92 status=variable vmaxpu=1.5 vminpu=0.92 daily="COM_5_SA"
 
New "Load.BT_16080_226_M1" bus1="UC16080.2.4" phases=1 conn=delta model=2 kv=0.22 kw = 0.0915780150773774 pf=0.92 status=variable vmaxpu=1.5 vminpu=0.92 daily="RES_7_SA" 
New "Load.BT_16080_226_M2" bus1="UC16080.2.4" phases=1 conn=delta model=3 kv=0.22 kw = 0.0915780150773774 pf=0.92 status=variable vmaxpu=1.5 vminpu=0.92 daily="RES_7_SA"
 
New "Load.BT_15581_227_M1" bus1="UC15581.1.2.3.4" phases=3 conn=delta model=2 kv=0.38 kw = 0.1290028140508763 pf=0.92 status=variable vmaxpu=1.5 vminpu=0.92 daily="RES_3_SA" 
New "Load.BT_15581_227_M2" bus1="UC15581.1.2.3.4" phases=3 conn=delta model=3 kv=0.38 kw = 0.1290028140508763 pf=0.92 status=variable vmaxpu=1.5 vminpu=0.92 daily="RES_3_SA"
 
New "Load.BT_6951_228_M1" bus1="UC6951.3.4" phases=1 conn=delta model=2 kv=0.22 kw = 0.008934440495353892 pf=0.92 status=variable vmaxpu=1.5 vminpu=0.92 daily="RES_7_SA" 
New "Load.BT_6951_228_M2" bus1="UC6951.3.4" phases=1 conn=delta model=3 kv=0.22 kw = 0.008934440495353892 pf=0.92 status=variable vmaxpu=1.5 vminpu=0.92 daily="RES_7_SA"
 
New "Load.BT_11814_230_M1" bus1="UC11814.1.2.4" phases=2 conn=delta model=2 kv=0.38 kw = 0.3724729138088682 pf=0.92 status=variable vmaxpu=1.5 vminpu=0.92 daily="RES_3_SA" 
New "Load.BT_11814_230_M2" bus1="UC11814.1.2.4" phases=2 conn=delta model=3 kv=0.38 kw = 0.3724729138088682 pf=0.92 status=variable vmaxpu=1.5 vminpu=0.92 daily="RES_3_SA"
 
New "Load.BT_5368_231_M1" bus1="UC5368.1.2.3.4" phases=3 conn=delta model=2 kv=0.38 kw = 1.0047683967624592 pf=0.92 status=variable vmaxpu=1.5 vminpu=0.92 daily="RES_3_SA" 
New "Load.BT_5368_231_M2" bus1="UC5368.1.2.3.4" phases=3 conn=delta model=3 kv=0.38 kw = 1.0047683967624592 pf=0.92 status=variable vmaxpu=1.5 vminpu=0.92 daily="RES_3_SA"
 
New "Load.BT_11814_233_M1" bus1="UC11814.3.1.4" phases=2 conn=delta model=2 kv=0.38 kw = 0.08040996445818503 pf=0.92 status=variable vmaxpu=1.5 vminpu=0.92 daily="RES_7_SA" 
New "Load.BT_11814_233_M2" bus1="UC11814.3.1.4" phases=2 conn=delta model=3 kv=0.38 kw = 0.08040996445818503 pf=0.92 status=variable vmaxpu=1.5 vminpu=0.92 daily="RES_7_SA"
 
New "Load.BT_13253_235_M1" bus1="UC13253.1.2.4" phases=2 conn=delta model=2 kv=0.38 kw = 0.24347009975799194 pf=0.92 status=variable vmaxpu=1.5 vminpu=0.92 daily="RES_3_SA" 
New "Load.BT_13253_235_M2" bus1="UC13253.1.2.4" phases=2 conn=delta model=3 kv=0.38 kw = 0.24347009975799194 pf=0.92 status=variable vmaxpu=1.5 vminpu=0.92 daily="RES_3_SA"
 
New "Load.BT_15510_236_M1" bus1="UC15510.3.1.4" phases=2 conn=delta model=2 kv=0.38 kw = 0.002233610123838473 pf=0.92 status=variable vmaxpu=1.5 vminpu=0.92 daily="RES_7_SA" 
New "Load.BT_15510_236_M2" bus1="UC15510.3.1.4" phases=2 conn=delta model=3 kv=0.38 kw = 0.002233610123838473 pf=0.92 status=variable vmaxpu=1.5 vminpu=0.92 daily="RES_7_SA"
 
New "Load.BT_12303_237_M1" bus1="UC12303.2.4" phases=1 conn=delta model=2 kv=0.22 kw = 0.10497967582040824 pf=0.92 status=variable vmaxpu=1.5 vminpu=0.92 daily="RES_7_SA" 
New "Load.BT_12303_237_M2" bus1="UC12303.2.4" phases=1 conn=delta model=3 kv=0.22 kw = 0.10497967582040824 pf=0.92 status=variable vmaxpu=1.5 vminpu=0.92 daily="RES_7_SA"
 
New "Load.BT_12262_238_M1" bus1="UC12262.1.4" phases=1 conn=delta model=2 kv=0.22 kw = 0.004467220247676946 pf=0.92 status=variable vmaxpu=1.5 vminpu=0.92 daily="RES_7_SA" 
New "Load.BT_12262_238_M2" bus1="UC12262.1.4" phases=1 conn=delta model=3 kv=0.22 kw = 0.004467220247676946 pf=0.92 status=variable vmaxpu=1.5 vminpu=0.92 daily="RES_7_SA"
 
New "Load.BT_15769_240_M1" bus1="UC15769.2.4" phases=1 conn=delta model=2 kv=0.22 kw = 0.24690477534564292 pf=0.92 status=variable vmaxpu=1.5 vminpu=0.92 daily="RES_2_SA" 
New "Load.BT_15769_240_M2" bus1="UC15769.2.4" phases=1 conn=delta model=3 kv=0.22 kw = 0.24690477534564292 pf=0.92 status=variable vmaxpu=1.5 vminpu=0.92 daily="RES_2_SA"
 
New "Load.BT_9154_242_M1" bus1="UC9154.3.4" phases=1 conn=delta model=2 kv=0.22 kw = 0.5703463071627373 pf=0.92 status=variable vmaxpu=1.5 vminpu=0.92 daily="COM_1_SA" 
New "Load.BT_9154_242_M2" bus1="UC9154.3.4" phases=1 conn=delta model=3 kv=0.22 kw = 0.5703463071627373 pf=0.92 status=variable vmaxpu=1.5 vminpu=0.92 daily="COM_1_SA"
 
New "Load.BT_15771_243_M1" bus1="UC15771.1.2.3.4" phases=3 conn=delta model=2 kv=0.38 kw = 0.5839832793452501 pf=0.92 status=variable vmaxpu=1.5 vminpu=0.92 daily="COM_1_SA" 
New "Load.BT_15771_243_M2" bus1="UC15771.1.2.3.4" phases=3 conn=delta model=3 kv=0.38 kw = 0.5839832793452501 pf=0.92 status=variable vmaxpu=1.5 vminpu=0.92 daily="COM_1_SA"
 
New "Load.BT_15774_244_M1" bus1="UC15774.1.4" phases=1 conn=delta model=2 kv=0.22 kw = 0.2244588866778572 pf=0.92 status=variable vmaxpu=1.5 vminpu=0.92 daily="RES_2_SA" 
New "Load.BT_15774_244_M2" bus1="UC15774.1.4" phases=1 conn=delta model=3 kv=0.22 kw = 0.2244588866778572 pf=0.92 status=variable vmaxpu=1.5 vminpu=0.92 daily="RES_2_SA"
 
New "Load.BT_5019_249_M1" bus1="UC5019.1.4" phases=1 conn=delta model=2 kv=0.22 kw = 0.25492116415556637 pf=0.92 status=variable vmaxpu=1.5 vminpu=0.92 daily="RES_2_SA" 
New "Load.BT_5019_249_M2" bus1="UC5019.1.4" phases=1 conn=delta model=3 kv=0.22 kw = 0.25492116415556637 pf=0.92 status=variable vmaxpu=1.5 vminpu=0.92 daily="RES_2_SA"
 
New "Load.BT_15445_253_M1" bus1="UC15445.3.4" phases=1 conn=delta model=2 kv=0.22 kw = 0.173153998294347 pf=0.92 status=variable vmaxpu=1.5 vminpu=0.92 daily="RES_2_SA" 
New "Load.BT_15445_253_M2" bus1="UC15445.3.4" phases=1 conn=delta model=3 kv=0.22 kw = 0.173153998294347 pf=0.92 status=variable vmaxpu=1.5 vminpu=0.92 daily="RES_2_SA"
 
New "Load.BT_7160_254_M1" bus1="UC7160.1.4" phases=1 conn=delta model=2 kv=0.22 kw = 0.12112839997408346 pf=0.92 status=variable vmaxpu=1.5 vminpu=0.92 daily="COM_1_SA" 
New "Load.BT_7160_254_M2" bus1="UC7160.1.4" phases=1 conn=delta model=3 kv=0.22 kw = 0.12112839997408346 pf=0.92 status=variable vmaxpu=1.5 vminpu=0.92 daily="COM_1_SA"
 
New "Load.BT_7914_257_M1" bus1="UC7914.1.4" phases=1 conn=delta model=2 kv=0.22 kw = 0.032889168204883586 pf=0.92 status=variable vmaxpu=1.5 vminpu=0.92 daily="COM_1_SA" 
New "Load.BT_7914_257_M2" bus1="UC7914.1.4" phases=1 conn=delta model=3 kv=0.22 kw = 0.032889168204883586 pf=0.92 status=variable vmaxpu=1.5 vminpu=0.92 daily="COM_1_SA"
 
New "Load.BT_15448_258_M1" bus1="UC15448.1.4" phases=1 conn=delta model=2 kv=0.22 kw = 0.0 pf=0.92 status=variable vmaxpu=1.5 vminpu=0.92 daily="RES_2_SA" 
New "Load.BT_15448_258_M2" bus1="UC15448.1.4" phases=1 conn=delta model=3 kv=0.22 kw = 0.0 pf=0.92 status=variable vmaxpu=1.5 vminpu=0.92 daily="RES_2_SA"
 
New "Load.BT_10064_260_M1" bus1="UC10064.3.4" phases=1 conn=delta model=2 kv=0.22 kw = 0.1493180971504714 pf=0.92 status=variable vmaxpu=1.5 vminpu=0.92 daily="RES_11_SA" 
New "Load.BT_10064_260_M2" bus1="UC10064.3.4" phases=1 conn=delta model=3 kv=0.22 kw = 0.1493180971504714 pf=0.92 status=variable vmaxpu=1.5 vminpu=0.92 daily="RES_11_SA"
 
New "Load.BT_9638_261_M1" bus1="UC9638.3.4" phases=1 conn=delta model=2 kv=0.22 kw = 0.45431918378298497 pf=0.92 status=variable vmaxpu=1.5 vminpu=0.92 daily="RES_1_SA" 
New "Load.BT_9638_261_M2" bus1="UC9638.3.4" phases=1 conn=delta model=3 kv=0.22 kw = 0.45431918378298497 pf=0.92 status=variable vmaxpu=1.5 vminpu=0.92 daily="RES_1_SA"
 
New "Load.BT_15452_262_M1" bus1="UC15452.1.2.3.4" phases=3 conn=delta model=2 kv=0.38 kw = 0.5739734387905205 pf=0.92 status=variable vmaxpu=1.5 vminpu=0.92 daily="RES_2_SA" 
New "Load.BT_15452_262_M2" bus1="UC15452.1.2.3.4" phases=3 conn=delta model=3 kv=0.38 kw = 0.5739734387905205 pf=0.92 status=variable vmaxpu=1.5 vminpu=0.92 daily="RES_2_SA"
 
New "Load.BT_15581_265_M1" bus1="UC15581.1.4" phases=1 conn=delta model=2 kv=0.22 kw = 0.18169410429700888 pf=0.92 status=variable vmaxpu=1.5 vminpu=0.92 daily="RES_3_SA" 
New "Load.BT_15581_265_M2" bus1="UC15581.1.4" phases=1 conn=delta model=3 kv=0.22 kw = 0.18169410429700888 pf=0.92 status=variable vmaxpu=1.5 vminpu=0.92 daily="RES_3_SA"
 
New "Load.BT_14783_266_M1" bus1="UC14783.1.2.3.4" phases=3 conn=delta model=2 kv=0.38 kw = 0.20531433785562006 pf=0.92 status=variable vmaxpu=1.5 vminpu=0.92 daily="RES_3_SA" 
New "Load.BT_14783_266_M2" bus1="UC14783.1.2.3.4" phases=3 conn=delta model=3 kv=0.38 kw = 0.20531433785562006 pf=0.92 status=variable vmaxpu=1.5 vminpu=0.92 daily="RES_3_SA"
 
New "Load.BT_8867_270_M1" bus1="UC8867.1.4" phases=1 conn=delta model=2 kv=0.22 kw = 0.4469674965706419 pf=0.92 status=variable vmaxpu=1.5 vminpu=0.92 daily="RES_3_SA" 
New "Load.BT_8867_270_M2" bus1="UC8867.1.4" phases=1 conn=delta model=3 kv=0.22 kw = 0.4469674965706419 pf=0.92 status=variable vmaxpu=1.5 vminpu=0.92 daily="RES_3_SA"
 
New "Load.BT_12650_273_M1" bus1="UC12650.2.3.4" phases=2 conn=delta model=2 kv=0.38 kw = 0.15188548842101615 pf=0.92 status=variable vmaxpu=1.5 vminpu=0.92 daily="RES_7_SA" 
New "Load.BT_12650_273_M2" bus1="UC12650.2.3.4" phases=2 conn=delta model=3 kv=0.38 kw = 0.15188548842101615 pf=0.92 status=variable vmaxpu=1.5 vminpu=0.92 daily="RES_7_SA"
 
New "Load.BT_16074_274_M1" bus1="UC16074.1.2.3.4" phases=3 conn=delta model=2 kv=0.38 kw = 7.316821580040549 pf=0.92 status=variable vmaxpu=1.5 vminpu=0.92 daily="RES_3_SA" 
New "Load.BT_16074_274_M2" bus1="UC16074.1.2.3.4" phases=3 conn=delta model=3 kv=0.38 kw = 7.316821580040549 pf=0.92 status=variable vmaxpu=1.5 vminpu=0.92 daily="RES_3_SA"
 
New "Load.BT_16078_276_M1" bus1="UC16078.1.2.4" phases=2 conn=delta model=2 kv=0.38 kw = 0.10051245557273128 pf=0.92 status=variable vmaxpu=1.5 vminpu=0.92 daily="RES_7_SA" 
New "Load.BT_16078_276_M2" bus1="UC16078.1.2.4" phases=2 conn=delta model=3 kv=0.38 kw = 0.10051245557273128 pf=0.92 status=variable vmaxpu=1.5 vminpu=0.92 daily="RES_7_SA"
 
New "Load.BT_15580_277_M1" bus1="UC15580.2.4" phases=1 conn=delta model=2 kv=0.22 kw = 0.1394851652926684 pf=0.92 status=variable vmaxpu=1.5 vminpu=0.92 daily="RES_2_SA" 
New "Load.BT_15580_277_M2" bus1="UC15580.2.4" phases=1 conn=delta model=3 kv=0.22 kw = 0.1394851652926684 pf=0.92 status=variable vmaxpu=1.5 vminpu=0.92 daily="RES_2_SA"
 
New "Load.BT_15707_278_M1" bus1="UC15707.1.4" phases=1 conn=delta model=2 kv=0.22 kw = 0.11383272110091329 pf=0.92 status=variable vmaxpu=1.5 vminpu=0.92 daily="RES_2_SA" 
New "Load.BT_15707_278_M2" bus1="UC15707.1.4" phases=1 conn=delta model=3 kv=0.22 kw = 0.11383272110091329 pf=0.92 status=variable vmaxpu=1.5 vminpu=0.92 daily="RES_2_SA"
 
New "Load.BT_11074_279_M1" bus1="UC11074.1.4" phases=1 conn=delta model=2 kv=0.22 kw = 0.0 pf=0.92 status=variable vmaxpu=1.5 vminpu=0.92 daily="COM_1_SA" 
New "Load.BT_11074_279_M2" bus1="UC11074.1.4" phases=1 conn=delta model=3 kv=0.22 kw = 0.0 pf=0.92 status=variable vmaxpu=1.5 vminpu=0.92 daily="COM_1_SA"
 
New "Load.BT_8981_281_M1" bus1="UC8981.2.4" phases=1 conn=delta model=2 kv=0.22 kw = 0.28538344163327556 pf=0.92 status=variable vmaxpu=1.5 vminpu=0.92 daily="RES_2_SA" 
New "Load.BT_8981_281_M2" bus1="UC8981.2.4" phases=1 conn=delta model=3 kv=0.22 kw = 0.28538344163327556 pf=0.92 status=variable vmaxpu=1.5 vminpu=0.92 daily="RES_2_SA"
 
New "Load.BT_15761_282_M1" bus1="UC15761.1.2.3.4" phases=3 conn=delta model=2 kv=0.38 kw = 0.43448827349785213 pf=0.92 status=variable vmaxpu=1.5 vminpu=0.92 daily="RES_2_SA" 
...