output/1_TAP2_1/Cargas_MT_SA12_1_TAP2_1.dss
New "Load.MT_8447_0_M1" bus1="84471.1.2.3.4" phases=3 conn=delta model=2 kv=13.8 kw = 34.49048984607779 pf=0.92 status=variable vmaxpu=1.5 vminpu=0.93 daily="6_SA" 
New "Load.MT_8447_0_M2" bus1="84471.1.2.3.4" phases=3 conn=delta model=3 kv=13.8 kw = 34.49048984607779 pf=0.92 status=variable vmaxpu=1.5 vminpu=0.93 daily="6_SA"
 
New "Load.MT_8366_2_M1" bus1="83661.1.2.3.4" phases=3 conn=delta model=2 kv=13.8 kw = 2.4495967741935485 pf=0.92 status=variable vmaxpu=1.5 vminpu=0.93 daily="4_SA" 
New "Load.MT_8366_2_M2" bus1="83661.1.2.3.4" phases=3 conn=delta model=3 kv=13.8 kw = 2.4495967741935485 pf=0.92 status=variable vmaxpu=1.5 vminpu=0.93 daily="4_SA"
 
New "Load.MT_8392_3_M1" bus1="83921.1.2.3.4" phases=3 conn=delta model=2 kv=13.8 kw = 16.28143881955568 pf=0.92 status=variable vmaxpu=1.5 vminpu=0.93 daily="6_SA" 
New "Load.MT_8392_3_M2" bus1="83921.1.2.3.4" phases=3 conn=delta model=3 kv=13.8 kw = 16.28143881955568 pf=0.92 status=variable vmaxpu=1.5 vminpu=0.93 daily="6_SA"
 
New "Load.MT_6931_4_M1" bus1="69311.1.2.3.4" phases=3 conn=delta model=2 kv=13.8 kw = 449.35731488199036 pf=0.92 status=variable vmaxpu=1.5 vminpu=0.93 daily="3_SA" 
New "Load.MT_6931_4_M2" bus1="69311.1.2.3.4" phases=3 conn=delta model=3 kv=13.8 kw = 449.35731488199036 pf=0.92 status=variable vmaxpu=1.5 vminpu=0.93 daily="3_SA"
 
New "Load.MT_8108_6_M1" bus1="81081.1.2.3.4" phases=3 conn=delta model=2 kv=13.8 kw = 13.563893954514647 pf=0.92 status=variable vmaxpu=1.5 vminpu=0.93 daily="6_SA" 
New "Load.MT_8108_6_M2" bus1="81081.1.2.3.4" phases=3 conn=delta model=3 kv=13.8 kw = 13.563893954514647 pf=0.92 status=variable vmaxpu=1.5 vminpu=0.93 daily="6_SA"
 
New "Load.MT_983_10_M1" bus1="9831.1.2.3.4" phases=3 conn=delta model=2 kv=13.8 kw = 56.131996858356494 pf=0.92 status=variable vmaxpu=1.5 vminpu=0.93 daily="6_SA" 
New "Load.MT_983_10_M2" bus1="9831.1.2.3.4" phases=3 conn=delta model=3 kv=13.8 kw = 56.131996858356494 pf=0.92 status=variable vmaxpu=1.5 vminpu=0.93 daily="6_SA"
 
New "Load.MT_7525_13_M1" bus1="75251.1.2.3.4" phases=3 conn=delta model=2 kv=13.8 kw = 1.5712871019837893 pf=0.92 status=variable vmaxpu=1.5 vminpu=0.93 daily="5_SA" 
New "Load.MT_7525_13_M2" bus1="75251.1.2.3.4" phases=3 conn=delta model=3 kv=13.8 kw = 1.5712871019837893 pf=0.92 status=variable vmaxpu=1.5 vminpu=0.93 daily="5_SA"
 
New "Load.MT_7286_14_M1" bus1="72861.1.2.3.4" phases=3 conn=delta model=2 kv=13.8 kw = 33.436952385704124 pf=0.92 status=variable vmaxpu=1.5 vminpu=0.93 daily="9_SA" 
New "Load.MT_7286_14_M2" bus1="72861.1.2.3.4" phases=3 conn=delta model=3 kv=13.8 kw = 33.436952385704124 pf=0.92 status=variable vmaxpu=1.5 vminpu=0.93 daily="9_SA"
 
New "Load.MT_6804_16_M1" bus1="68041.1.2.3.4" phases=3 conn=delta model=2 kv=13.8 kw = 0.5689457340715224 pf=0.92 status=variable vmaxpu=1.5 vminpu=0.93 daily="1_SA" 
New "Load.MT_6804_16_M2" bus1="68041.1.2.3.4" phases=3 conn=delta model=3 kv=13.8 kw = 0.5689457340715224 pf=0.92 status=variable vmaxpu=1.5 vminpu=0.93 daily="1_SA"
 
New "Load.MT_6914_17_M1" bus1="69141.1.2.3.4" phases=3 conn=delta model=2 kv=13.8 kw = 57.82315062652756 pf=0.92 status=variable vmaxpu=1.5 vminpu=0.93 daily="7_SA" 
New "Load.MT_6914_17_M2" bus1="69141.1.2.3.4" phases=3 conn=delta model=3 kv=13.8 kw = 57.82315062652756 pf=0.92 status=variable vmaxpu=1.5 vminpu=0.93 daily="7_SA"
 
New "Load.MT_822_18_M1" bus1="8221.1.2.3.4" phases=3 conn=delta model=2 kv=13.8 kw = 0.6557249759387662 pf=0.92 status=variable vmaxpu=1.5 vminpu=0.93 daily="1_SA" 
New "Load.MT_822_18_M2" bus1="8221.1.2.3.4" phases=3 conn=delta model=3 kv=13.8 kw = 0.6557249759387662 pf=0.92 status=variable vmaxpu=1.5 vminpu=0.93 daily="1_SA"
 
New "Load.MT_6806_19_M1" bus1="68061.1.2.3.4" phases=3 conn=delta model=2 kv=13.8 kw = 0.8105116830023421 pf=0.92 status=variable vmaxpu=1.5 vminpu=0.93 daily="1_SA" 
New "Load.MT_6806_19_M2" bus1="68061.1.2.3.4" phases=3 conn=delta model=3 kv=13.8 kw = 0.8105116830023421 pf=0.92 status=variable vmaxpu=1.5 vminpu=0.93 daily="1_SA"
 
New "Load.MT_2005_22_M1" bus1="20051.1.2.3.4" phases=3 conn=delta model=2 kv=13.8 kw = 3.457058799337 pf=0.92 status=variable vmaxpu=1.5 vminpu=0.93 daily="2_SA" 
New "Load.MT_2005_22_M2" bus1="20051.1.2.3.4" phases=3 conn=delta model=3 kv=13.8 kw = 3.457058799337 pf=0.92 status=variable vmaxpu=1.5 vminpu=0.93 daily="2_SA"
 
New "Load.MT_7479_23_M1" bus1="74791.1.2.3.4" phases=3 conn=delta model=2 kv=13.8 kw = 5.321697112206911 pf=0.92 status=variable vmaxpu=1.5 vminpu=0.93 daily="2_SA" 
New "Load.MT_7479_23_M2" bus1="74791.1.2.3.4" phases=3 conn=delta model=3 kv=13.8 kw = 5.321697112206911 pf=0.92 status=variable vmaxpu=1.5 vminpu=0.93 daily="2_SA"
 
New "Load.MT_1443_24_M1" bus1="14431.1.2.3.4" phases=3 conn=delta model=2 kv=13.8 kw = 0.1030838707471216 pf=0.92 status=variable vmaxpu=1.5 vminpu=0.93 daily="1_SA" 
New "Load.MT_1443_24_M2" bus1="14431.1.2.3.4" phases=3 conn=delta model=3 kv=13.8 kw = 0.1030838707471216 pf=0.92 status=variable vmaxpu=1.5 vminpu=0.93 daily="1_SA"
 
...